PDE 2011 1 1 1 1 1 500.0 500.0 0.01 0 0 4
event name:       hom_explosion
time shift:       0.0
half duration:       0.2
latitute:       500.0
longitude:       500.0
depth:       0.01
Mrr:       1e+23
Mtt:       1e+23
Mpp:       1e+23
Mrt:       0.0
Mrp:       0.0
Mtp:       0.0
