PDE 2011 1 1 1 1 1 750.0 250.0 0.01 0 0 1
event name:       hom_explosion
time shift:       0.0
half duration:       0.2
latitute:       750.0
longitude:       250.0
depth:       0.01
Mrr:       1e+23
Mtt:       1e+23
Mpp:       1e+23
Mrt:       0.0
Mrp:       0.0
Mtp:       0.0
